4
title
N           -0.40225738372045     0.29905255574116     0.42458109398909 
H            0.16889257440961     0.72139274836464     0.18178091811358 
H           -0.82178197082502     0.69646097187648     0.90374234466325 
H           -0.14313815787215    -0.32121873380000     0.75872303799761 
